[TITLE]								
								
								
[JUNCTIONS]								
;ID              	Elev        	Demand      	Pattern         					
 SBJ1            	0	3.5875	CHCC            	;				
 SBJ2            	0	3.5875	CHCC            	;				
 SBJ3            	0	3.5875	CHDV            	;				
 SBJ4            	0	0	                	;				
 SBJ5            	0	4.745	CHCC            	;				
 SBJ6            	0	4.745	DC              	;				
 SBJ7            	0	0.278	DC              	;				
 SBJ8            	0	9.297	                	;				
 SBJ9            	0	9.297	                	;				
 SBJ10           	0	29.814	DC              	;				
 SBJ11           	0	6.0775	                	;				
 SBJ13           	0	29.814	DC              	;				
 SBJ14           	0	29.814	THUONG          	;				
 SBJ15           	0	6.0775	DU              	;				
 SBJ16           	0	3.5875	                	;				
 JT1             	0	0.0643	BT             	;				
 JT3             	0	0.032	T6              	;				
 JT4             	0	0.028	T15             	;				
 JT5             	0	0.052	T16             	;				
 JT7             	0	0.0683	T18             	;				
 JT9             	0	0.0643	T4              	;				
 JT10            	0	0.05	T5              	;				
 JT11            	0	0.032	T7              	;				
 JT12            	0	0.028	T11             	;				
 JT13            	0	0.028	T14             	;				
 JT14            	0	0.0683	T18             	;				
 JT15            	0	0.102	T8              	;				
 JT16            	0	0.0643	T7              	;				
 JT17            	0	0.0643	T8              	;				
 JT18            	0	0.095	T9              	;				
 JT19            	0	0.034	T11             	;				
 JT20            	0	0.0425	T13             	;				
 JT21            	0	0.067	T16             	;				
 JT22            	0	0.0683	T18             	;				
 JT23            	0	0.0683	T18             	;				
 JT24            	0	0.08	T17             	;				
 JT25            	0	0.022	T14             	;				
 JT26            	0	0.022	T13             	;				
 JT27            	0	0.04	T2              	;				
 JT28            	0	0.04	T9              	;				
 JT29            	0	0.04	T3              	;				
 JT30            	0	0.04	T3              	;				
 JT31            	0	0.04	T2              	;				
 JT32            	0	0.022	T15             	;				
 JT33            	0	0.052	T16             	;				
 JT34            	0	0.052	                	;				
 JT36            	0	0	                	;				
 JT37            	0	0	                	;				
 JT39            	0	0.148	                	;				
 JT40            	0	0	                	;				
 JT41            	0	9.297	                	;				
 JT42            	0	9.297	                	;				
 J1              	0	0.0787	TTTM            	;				
 J2              	0	0.2222	                	;				
 J3              	0	0.1013	BT            	;				
 J4              	0	0.1013	BT            	;				
 J5              	0	0.035	                	;				
 J6              	0	0	                	;				
 J7              	0	0	                	;				
 J8              	0	0.08	T17             	;				
 J9              	0	0.141	TDTT            	;				
 J10             	0	0.0787	BT             	;				
 J11             	0	0.0243	NTT             	;				
 J12             	0	0.05	T5              	;				
 J13             	0	1.8	BT            	;				
 J14             	0	1.8	CC            	;				
 J15             	0	0.156	CC            	;				
 J16             	0	0.1013	TH            	;				
 J17             	0	0.1597	TH            	;				
 J18             	0	0.1562	CC            	;				
 J19             	0	0.085	BT             	;				
 SJ3             	0	0.37	CHCC            	;				
 SJ4             	0	0.35	CHCC            	;				
 SJ5             	0	0.55	CHCC            	;				
 SJ6             	0	0.55	CHDV            	;				
 SJ7             	0	0.35	CHCC            	;				
 SJ8             	0	4.1	CHVP            	;				
 SJ9             	0	6.51	CHVP            	;				
 SJ10            	0	0.05	CHCC            	;				
 SJ11            	0	0.05	                	;				
 SJ12            	0	0.05	CHCC            	;				
 SJ13            	0	0.05	CHCC            	;				
 SJ14            	0	0.054	CHCC            	;				
 SJ15            	0	0.148	NP              	;				
 SJ16            	0	0.09	NP              	;				
 SJ17            	0	0.035	CHCC            	;				
 SJ18            	0	0.035	NP              	;				
 JT2             	0	0.113	NP              	;				
 JT6             	0	0	                	;				
 SJ1             	0	6.51	                	;				
 SJ2             	0	0	                	;				
 JT35            	0	0.032	T6              	;				
 SJ19            	0	0.55	CHCC            	;				
 SJ20            	0	0.37	CHCC            	;				
 SJ21            	0	0.06	CHCC            	;				
 SJ22            	0	0.06	CHCC            	;				
 SJ23            	0	0.035	NP              	;				
 SJ24            	0	0	                	;				
 SJ25            	0	1.5	CHVP            	;				
 J20             	0	0.0243	BT             	;				
 J21             	0	0.0243	BT             	;				
 J22             	0	0.0746	BT             	;				
 J23             	0	0.085	BT             	;				
 J24             	0	0.1024	BT             	;				
 J25             	0	0.1006	BT             	;				
 JT38            	0	0.0643	T4              	;				
 J26             	0	0.0243	BT             	;				
 J27             	0	0.1024	BT             	;				
 J28             	0	0.1006	BT             	;				
 SJ26            	0	0.05	NP              	;				
 SJ27            	0	0.054	CHCC            	;				
 J29             	0	1.8	BT            	;				
 SBJ17           	0	6.0775	DU              	;				
 SBJ18           	0	6.0775	                	;				
 JT43            	0	0.1133	T15             	;				
 JT44            	0	0.052	T16             	;				
 SBJ19           	23	0.1	DC              	;				
 SJ28            	23	0.1	NP              	;				
 NUT1            	23	0.2222	TDTT            	;				
 NUT2            	23	0.1493	TH            	;				
 NUT4            	23	0.2222	CC            	;				
 NUT5            	23	0.2222	CC            	;				
 NUT6            	23	0.0746	BT             	;				
								
[RESERVOIRS]								
;ID              	Head        	Pattern         						
1	0	                	;					
								
[TANKS]								
;ID              	Elevation   	InitLevel   	MinLevel    	MaxLevel    	Diameter    	MinVol      	VolCurve        	Overflow
								
[PIPES]								
;ID              	Node1           	Node2           	Length      	Diameter    	Roughness   	MinorLoss   	Status	
 SB1             	SBJ1            	SBJ2            	78.6	12	100	0	Open  	;
 SB2             	SBJ2            	SBJ3            	100.53	12	100	0	Open  	;
 SB3             	SBJ3            	SBJ4            	85.39	12	100	0	Open  	;
 SB4             	SBJ4            	SBJ5            	102.89	12	100	0	Open  	;
 SB5             	SBJ5            	SBJ6            	49.89	12	100	0	Open  	;
 SB22            	SBJ10           	SBJ13           	54.91	12	100	0	Open  	;
 SB19            	SBJ6            	SBJ14           	310.3	12	100	0	Open  	;
 SB18            	SBJ5            	SBJ15           	297.41	12	100	0	Open  	;
 SB16            	SBJ15           	SBJ11           	99.48	12	100	0	Open  	;
 SB12            	SBJ16           	SBJ3            	290.41	12	100	0	Open  	;
 SB14            	SBJ4            	SBJ11           	284.6	12	100	0	Open  	;
 PT-5            	JT4             	JT5             	34.12	100	140	0	Open  	;
 PT-24           	JT23            	JT24            	53.26	100	140	0	Open  	;
 PT-23           	JT24            	JT34            	93.17	100	140	0	Open  	;
 PT-22           	JT34            	JT33            	46.26	100	140	0	Open  	;
 PT-21           	JT33            	JT32            	31.75	100	140	0	Open  	;
 PT-20           	JT32            	JT31            	98.13	100	140	0	Open  	;
 PT-19           	JT31            	JT30            	161.22	100	140	0	Open  	;
 PT-18           	JT30            	JT1             	287.49	100	140	0	Open  	;
 PT-30           	JT9             	JT16            	67.41	100	140	0	Open  	;
 PT-31           	JT16            	JT17            	67.65	100	140	0	Open  	;
 PT-32           	JT17            	JT29            	77.11	100	140	0	Open  	;
 PT-33           	JT29            	JT28            	79.61	100	140	0	Open  	;
 PT-34           	JT28            	JT27            	48.54	100	140	0	Open  	;
 PT-35           	JT27            	JT26            	46.75	100	140	0	Open  	;
 PT-36           	JT26            	JT25            	52.13	100	140	0	Open  	;
 PT-47           	JT13            	JT4             	38.28	100	140	0	Open  	;
 PT-46           	JT13            	JT12            	53.52	100	140	0	Open  	;
 PT-43           	JT11            	JT10            	61.83	100	140	0	Open  	;
 PT-42           	JT10            	JT9             	118.7	100	140	0	Open  	;
 PT-54           	JT16            	JT15            	152.31	100	140	0	Open  	;
 PT-55           	JT17            	JT18            	117.34	100	140	0	Open  	;
 PT-56           	JT18            	JT19            	41.91	100	140	0	Open  	;
 PT-57           	JT19            	JT20            	40.35	100	140	0	Open  	;
 PT-50           	JT11            	JT15            	60.36	100	140	0	Open  	;
 PT-52           	JT15            	JT18            	55.96	100	140	0	Open  	;
 PT-60           	JT18            	JT28            	105.06	100	140	0	Open  	;
 PT-59           	JT19            	JT27            	128.67	100	140	0	Open  	;
 PT-41           	JT27            	JT31            	45.31	100	140	0	Open  	;
 PT-40           	JT29            	JT30            	38.16	100	140	0	Open  	;
 PT-51           	JT12            	JT20            	115.99	100	140	0	Open  	;
 PT-58           	JT20            	JT26            	144.4	100	140	0	Open  	;
 PT-39           	JT5             	JT21            	116.22	100	140	0	Open  	;
 PT-28           	JT7             	JT14            	81.81	100	140	0	Open  	;
 PT-27           	JT14            	JT22            	125.38	100	140	0	Open  	;
 PT-26           	JT22            	JT23            	63.96	100	140	0	Open  	;
 PT-11           	JT36            	JT42            	140.56	100	140	0	Open  	;
 SB9             	JT42            	JT41            	107.1	100	140	0	Open  	;
 PT-13           	JT41            	JT40            	56.16	100	140	0	Open  	;
 PT-14           	JT40            	JT39            	90.28	100	140	0	Open  	;
 PT-17           	JT37            	JT36            	90.89	100	140	0	Open  	;
 SB8             	SBJ8            	JT41            	109.8	12	100	0	Open  	;
 SB10            	JT42            	SBJ9            	80.4	12	100	0	Open  	;
 PD3             	J2              	J1              	128.25	200	140	0	Open  	;
 PD4             	J1              	J10             	275.06	200	140	0	Open  	;
 PD18            	J9              	J11             	96.01	200	140	0	Open  	;
 PD46            	J3              	J4              	101.14	200	140	0	Open  	;
 PD12            	J4              	J16             	51.14	200	140	0	Open  	;
 PD15            	J16             	J17             	178.44	200	140	0	Open  	;
 PD14            	J4              	J18             	182.97	200	140	0	Open  	;
 PD20            	J18             	J17             	54.01	200	140	0	Open  	;
 PD22            	J18             	J8              	179.64	200	140	0	Open  	;
 PD13            	J4              	J13             	114.35	200	140	0	Open  	;
 PD6             	J13             	J14             	194	200	140	0	Open  	;
 PD21            	J14             	J18             	60.12	200	140	0	Open  	;
 PD7             	J14             	J15             	182.61	200	140	0	Open  	;
 PD44            	J14             	J5              	120.85	200	140	0	Open  	;
 PT-9            	J15             	J6              	85.18	200	140	0	Open  	;
 PD8             	J6              	J7              	88.17	200	140	0	Open  	;
 PD10            	J5              	J7              	91.56	200	140	0	Open  	;
 PT-12           	JT37            	JT40            	182.86	12	100	0	Open  	;
14	SBJ15           	SBJ14           	55.01	12	100	0	Open  	;
15	SBJ14           	SBJ13           	72.12	12	100	0	Open  	;
 PT-49           	J12             	JT10            	41.09	12	100	0	Open  	;
 PT-3            	J12             	JT3             	101.9	12	100	0	Open  	;
 PT-48           	JT3             	JT35            	39.68	12	100	0	Open  	;
 PT-53           	JT35            	JT19            	116.46	12	100	0	Open  	;
 PT-44           	JT11            	JT35            	41.51	12	100	0	Open  	;
 PT-45           	JT35            	JT12            	41.38	12	100	0	Open  	;
 PD24            	J9              	JT3             	179.76	12	100	0	Open  	;
 PD5             	J10             	JT1             	172.96	12	100	0	Open  	;
 PT-25           	JT23            	J15             	301.28	12	100	0	Open  	;
 PT-6            	JT5             	J8              	51.71	12	100	0	Open  	;
 PT-7            	J8              	JT7             	41.58	12	100	0	Open  	;
 PT-8            	JT7             	J15             	62.98	12	100	0	Open  	;
 PD23            	J17             	JT5             	180.97	12	100	0	Open  	;
 PD9             	J7              	JT37            	177.22	12	100	0	Open  	;
 PT-10           	J6              	JT36            	174.61	12	100	0	Open  	;
 PT-16           	JT2             	JT37            	86.97	12	100	0	Open  	;
 SP1             	SBJ1            	SJ3             	130.18	12	100	0	Open  	;
 SB11            	SBJ1            	SBJ16           	408.08	12	100	0	Open  	;
 SP28            	SJ3             	SJ20            	74.64	12	100	0	Open  	;
 SP33            	SJ20            	SJ7             	149.21	12	100	0	Open  	;
 SP27            	SJ20            	SJ8             	100.89	12	100	0	Open  	;
 SP2             	SJ3             	SJ4             	220.37	12	100	0	Open  	;
 SP3             	SJ4             	SJ5             	138.69	12	100	0	Open  	;
 SP29            	SJ4             	SJ7             	171.64	12	100	0	Open  	;
 SP30            	SJ5             	SJ19            	154.84	12	100	0	Open  	;
 SP32            	SJ7             	SJ19            	142.84	12	100	0	Open  	;
 SP31            	SJ19            	SJ6             	176.45	12	100	0	Open  	;
 SP35            	SJ19            	SJ9             	103.24	12	100	0	Open  	;
 SP36            	SJ6             	SJ1             	105.12	12	100	0	Open  	;
 SP4             	SJ5             	SJ6             	303.22	12	100	0	Open  	;
 SP6             	SJ1             	SJ2             	89.58	12	100	0	Open  	;
 SP21            	SJ21            	SJ22            	43.75	12	100	0	Open  	;
 SP34            	SJ7             	SJ25            	100.3	12	100	0	Open  	;
 SP7             	SJ2             	SJ11            	104	12	100	0	Open  	;
 PD43            	J13             	SJ11            	137.98	12	100	0	Open  	;
 SP42            	SJ11            	SJ10            	112.68	12	100	0	Open  	;
 SP8             	SJ12            	SJ11            	55.85	12	100	0	Open  	;
 SP9             	SJ12            	SJ17            	73.15	12	100	0	Open  	;
 SP10            	SJ17            	J5              	70.83	12	100	0	Open  	;
 SP43            	SJ12            	SJ13            	46.02	12	100	0	Open  	;
 SP46            	SJ14            	SJ22            	117.21	12	100	0	Open  	;
 SP13            	SJ16            	JT2             	71.84	12	100	0	Open  	;
 SP51            	SJ17            	SJ23            	47.35	12	100	0	Open  	;
 SP49            	SJ23            	SJ16            	124.35	12	100	0	Open  	;
 SP14            	SJ16            	SJ15            	202.58	12	100	0	Open  	;
 SP16            	SJ15            	SBJ8            	155.38	12	100	0	Open  	;
 SP15            	SJ15            	JT39            	98.55	12	100	0	Open  	;
 PT-15           	JT39            	JT2             	129.31	12	100	0	Open  	;
 SP12            	JT2             	SJ18            	132.04	12	100	0	Open  	;
 SP11            	SJ18            	J5              	46.95	12	100	0	Open  	;
 SP50            	SJ18            	SJ23            	69.35	12	100	0	Open  	;
 SP48            	SJ23            	SJ13            	73.15	12	100	0	Open  	;
 SP19            	SJ21            	SBJ5            	268.19	12	100	0	Open  	;
 SP18            	SBJ6            	SJ22            	252.39	12	100	0	Open  	;
 SP26            	SJ20            	SBJ2            	131.74	12	100	0	Open  	;
 SP37            	SJ1             	SJ9             	149.97	12	100	0	Open  	;
 SP38            	SJ9             	SJ25            	146.35	12	100	0	Open  	;
 SP24            	SJ25            	SJ8             	142.3	12	100	0	Open  	;
 SP25            	SJ8             	SBJ3            	136.54	12	100	0	Open  	;
 SP39            	SJ2             	SJ24            	297.35	12	100	0	Open  	;
 SP20            	SJ24            	SBJ4            	278.4	12	100	0	Open  	;
 PD25            	J20             	J21             	60.97	12	100	0	Open  	;
 PD16            	J1              	J20             	43.42	12	100	0	Open  	;
 PD17            	J20             	J11             	54.15	12	100	0	Open  	;
 PD26            	J11             	J26             	51.75	12	100	0	Open  	;
 PD35            	J19             	J27             	57.15	12	100	0	Open  	;
 PD37            	J27             	J28             	58.23	12	100	0	Open  	;
 PD41            	J28             	J12             	38.92	12	100	0	Open  	;
 PT-2            	JT38            	J12             	131.29	12	100	0	Open  	;
 PT-1            	JT1             	JT38            	45.85	12	100	0	Open  	;
 PT-29           	JT38            	JT9             	42.82	12	100	0	Open  	;
 PD40            	JT38            	J25             	37.13	12	100	0	Open  	;
 PD38            	J25             	J24             	58.33	12	100	0	Open  	;
 PD36            	J24             	J27             	143.05	12	100	0	Open  	;
 PD39            	J28             	J25             	139.31	12	100	0	Open  	;
 PD34            	J23             	J24             	56.96	12	100	0	Open  	;
 PD33            	J23             	J10             	44.46	12	100	0	Open  	;
 PD32            	J23             	J19             	130.95	12	100	0	Open  	;
 PD31            	J22             	J23             	73.59	12	100	0	Open  	;
 PD27            	J21             	J26             	65.88	12	100	0	Open  	;
 PD28            	J21             	J22             	110.36	12	100	0	Open  	;
 SB20            	SBJ13           	SBJ7            	372.79	12	100	0	Open  	;
 SB21            	SBJ7            	SBJ10           	389.12	12	100	0	Open  	;
 SB7             	SBJ7            	SBJ8            	146.58	12	100	0	Open  	;
 SP44            	SJ13            	SJ26            	94.55	12	100	0	Open  	;
 SP45            	SJ26            	SJ14            	102.45	12	100	0	Open  	;
 SP52            	SJ10            	SJ26            	47.63	12	100	0	Open  	;
 SP47            	SJ26            	SJ16            	63.78	12	100	0	Open  	;
 SP41            	SJ10            	SJ27            	101.39	12	100	0	Open  	;
 SP53            	SJ27            	SJ14            	46.13	12	100	0	Open  	;
 SP40            	SJ27            	SJ21            	116.01	12	100	0	Open  	;
 PD45            	J29             	J13             	110.52	12	100	0	Open  	;
 PD1             	J3              	J29             	160.31	12	100	0	Open  	;
 PD42            	J29             	SJ2             	131	12	100	0	Open  	;
 SB26            	SBJ11           	SBJ18           	131.7	12	100	0	Open  	;
 SB25            	SBJ18           	SBJ17           	114.14	12	100	0	Open  	;
 SB24            	SBJ17           	SBJ15           	182.84	12	100	0	Open  	;
 SB23            	SBJ17           	SBJ10           	411.19	12	100	0	Open  	;
 ongcapnuoc      	SBJ18           	1	612.67	12	100	0	Open  	;
 PT-61           	J8              	JT24            	272.15	100	140	0	Open  	;
 PT-62           	JT25            	JT32            	40.33	100	140	0	Open  	;
 PT-37           	JT13            	JT43            	126.52	100	140	0	Open  	;
 PT-63           	JT43            	JT25            	148.31	100	140	0	Open  	;
 PT-38           	JT21            	JT44            	123.25	100	140	0	Open  	;
 PT-64           	JT44            	JT33            	120.13	100	140	0	Open  	;
 SP54            	SJ22            	SJ28            	35.63	200	120	0	Open  	;
 SP55            	SJ15            	SJ28            	43.57	200	120	0	Open  	;
 SP56            	SJ28            	SBJ19           	235.25	200	120	0	Open  	;
 SB6             	SBJ6            	SBJ19           	36.12	200	120	0	Open  	;
 SB27            	SBJ7            	SBJ19           	68.81	200	120	0	Open  	;
 ?ng13           	NUT1            	J1              	90.55	200	120	0	Open  	;
 ?ng14           	NUT1            	J16             	123.77	200	120	0	Open  	;
 ?ng15           	NUT2            	J17             	39.68	200	120	0	Open  	;
 ?ng16           	NUT2            	J9              	89.58	200	120	0	Open  	;
 ?ng17           	NUT1            	NUT2            	197.51	200	120	0	Open  	;
 ?ng18           	NUT2            	JT4             	182.25	200	120	0	Open  	;
 ?ng21           	NUT4            	J2              	167.35	200	120	0	Open  	;
 ?ng22           	NUT4            	J3              	93.9	200	120	0	Open  	;
 ?ng23           	NUT4            	NUT5            	111.88	200	120	0	Open  	;
 ?ng24           	J26             	NUT6            	25.31	200	120	0	Open  	;
 ?ng25           	NUT6            	J22             	100.23	200	120	0	Open  	;
 ?ng26           	NUT6            	J19             	57.98	200	120	0	Open  	;
1	JT3             	JT4             	95.39	12	100	0	Open  	;
								
[PUMPS]								
;ID              	Node1           	Node2           	Parameters					
								
[VALVES]								
;ID              	Node1           	Node2           	Diameter    	Type	Setting     	MinorLoss   		
								
[TAGS]								
								
[DEMANDS]								
;Junction        	Demand      	Pattern         	Category					
 SBJ1            	3.5875	CHCC            	; 					
 SBJ1            	0.37	                	; 					
 SBJ2            	3.5875	CHCC            	; 					
 SBJ2            	0.37	CHDV            	; 					
 SBJ2            	4.1	                	; 					
 SBJ3            	3.5875	CHDV            	; 					
 SBJ3            	4.1	                	; 					
 SBJ5            	4.745	CHCC            	; 					
 SBJ5            	0.16	THUONG          	; 					
 SBJ6            	4.745	DC              	; 					
 SBJ6            	0.278	CHCC            	; 					
 SBJ6            	0.16	NP              	; 					
 SBJ6            	0.1	DC              	; 					
 SBJ7            	0.278	DC              	; 					
 SBJ7            	0.35	CV              	; 					
 SBJ7            	9.297	DU              	; 					
 SBJ10           	29.814	DC              	; 					
 SBJ10           	0.35	CV              	; 					
 SBJ10           	9.297	DU              	; 					
 SBJ13           	29.814	DC              	; 					
 SBJ13           	0.278	DC              	; 					
 SBJ13           	0.35	DU              	; 					
 SBJ14           	29.814	THUONG          	; 					
 SBJ14           	4.745	DC              	; 					
 SBJ14           	0.278	HOI             	; 					
 SBJ15           	6.0775	DU              	; 					
 SBJ15           	29.814	THUONG          	; 					
 SBJ15           	4.745	                	; 					
 JT1             	0.0643	BT             	; 					
 JT1             	0.0451	T5              	; 					
 JT3             	0.032	T6              	; 					
 JT3             	0.028	NTT             	; 					
 JT3             	0.141	TDTT            	; 					
 JT3             	0.1892	T6              	; 					
 JT4             	0.028	T15             	; 					
 JT4             	0.052	TH            	; 					
 JT4             	0.0861	T15             	; 					
 JT5             	0.052	T16             	; 					
 JT5             	0.08	TH            	; 					
 JT5             	0.0861	NP            	; 					
 JT5             	0.0711	T17             	; 					
 JT7             	0.0683	T18             	; 					
 JT7             	0.156	CC            	; 					
 JT7             	0.1291	T3              	; 					
 JT9             	0.0643	T4              	; 					
 JT9             	0.05	T7              	; 					
 JT9             	0.102	T4              	; 					
 JT10            	0.05	T5              	; 					
 JT10            	0.032	T7              	; 					
 JT10            	0.102	T5              	; 					
 JT11            	0.032	T7              	; 					
 JT11            	0.102	T10             	; 					
 JT11            	0.034	T6              	; 					
 JT12            	0.028	T11             	; 					
 JT12            	0.0425	T14             	; 					
 JT12            	0.1133	T6              	; 					
 JT13            	0.028	T14             	; 					
 JT13            	0.1133	T15             	; 					
 JT13            	0.052	T17             	; 					
 JT14            	0.0683	T18             	; 					
 JT14            	0.156	T7              	; 					
 JT15            	0.102	T8              	; 					
 JT15            	0.095	T10             	; 					
 JT15            	0.034	T3              	; 					
 JT16            	0.0643	T7              	; 					
 JT16            	0.102	T8              	; 					
 JT16            	0.095	T3              	; 					
 JT17            	0.0643	T8              	; 					
 JT17            	0.095	T9              	; 					
 JT17            	0.085	T8              	; 					
 JT18            	0.095	T9              	; 					
 JT18            	0.085	T10             	; 					
 JT18            	0.034	T12             	; 					
 JT18            	0.0375	T10             	; 					
 JT19            	0.034	T11             	; 					
 JT19            	0.0425	T12             	; 					
 JT19            	0.0375	T13             	; 					
 JT19            	0.0475	T11             	; 					
 JT20            	0.0425	T13             	; 					
 JT20            	0.0475	T14             	; 					
 JT20            	0.1133	T15             	; 					
 JT21            	0.067	T16             	; 					
 JT21            	0.08	T17             	; 					
 JT22            	0.0683	T18             	; 					
 JT22            	0.156	T17             	; 					
 JT23            	0.0683	T18             	; 					
 JT23            	0.156	T16             	; 					
 JT24            	0.08	T17             	; 					
 JT24            	0.0683	T2              	; 					
 JT25            	0.022	T14             	; 					
 JT25            	0.1133	T15             	; 					
 JT25            	0.052	T2              	; 					
 JT26            	0.022	T13             	; 					
 JT26            	0.0475	T14             	; 					
 JT26            	0.1133	T1              	; 					
 JT27            	0.04	T2              	; 					
 JT27            	0.022	T12             	; 					
 JT27            	0.0375	T13             	; 					
 JT27            	0.0475	T1              	; 					
 JT28            	0.04	T9              	; 					
 JT28            	0.085	T12             	; 					
 JT28            	0.0375	T1              	; 					
 JT29            	0.04	T3              	; 					
 JT29            	0.0643	T9              	; 					
 JT29            	0.085	T1              	; 					
 JT30            	0.04	T3              	; 					
 JT30            	0.0643	T1              	; 					
 JT31            	0.04	T2              	; 					
 JT31            	0.022	T2              	; 					
 JT32            	0.022	T15             	; 					
 JT32            	0.052	T15             	; 					
 JT33            	0.052	T16             	; 					
 JT33            	0.08	BT             	; 					
 J1              	0.0787	TTTM            	; 					
 J1              	0.2222	TDTT            	; 					
 J1              	0.1493	CC            	; 					
 J3              	0.1013	BT            	; 					
 J3              	0.1875	CC            	; 					
 J4              	0.1013	BT            	; 					
 J4              	0.1875	CC            	; 					
 J4              	0.1562	NP            	; 					
 J4              	0.0677	T16             	; 					
 J8              	0.08	T17             	; 					
 J8              	0.0683	CC            	; 					
 J8              	0.1291	NP            	; 					
 J8              	0.0711	NTT             	; 					
 J9              	0.141	TDTT            	; 					
 J9              	0.1493	TDTT            	; 					
 J9              	0.1892	BT             	; 					
 J10             	0.0787	BT             	; 					
 J10             	0.0451	BT             	; 					
 J11             	0.0243	NTT             	; 					
 J11             	0.141	TDTT            	; 					
 J11             	0.1493	T4              	; 					
 J12             	0.05	T5              	; 					
 J12             	0.032	BT             	; 					
 J12             	0.0538	NTT             	; 					
 J12             	0.141	                	; 					
 J13             	1.8	BT            	; 					
 J13             	0.1875	CC            	; 					
 J13             	0.1562	                	; 					
 J14             	1.8	CC            	; 					
 J14             	0.1562	CC            	; 					
 J14             	0.1291	                	; 					
 J15             	0.156	CC            	; 					
 J15             	0.1291	CC            	; 					
 J16             	0.1013	TH            	; 					
 J16             	0.1597	NP            	; 					
 J16             	0.0677	TH            	; 					
 J17             	0.1597	TH            	; 					
 J17             	0.0861	NP            	; 					
 J17             	0.0677	NP            	; 					
 J17             	0.0711	CC            	; 					
 J18             	0.1562	CC            	; 					
 J18             	0.1291	NP            	; 					
 J18             	0.0677	NP            	; 					
 J18             	0.0711	BT             	; 					
 J19             	0.085	BT             	; 					
 J19             	0.1024	NTT             	; 					
 J19             	0.141	CHCC            	; 					
 SJ3             	0.37	CHCC            	; 					
 SJ3             	0.13	CHCC            	; 					
 SJ4             	0.35	CHCC            	; 					
 SJ4             	0.37	CHCC            	; 					
 SJ5             	0.55	CHCC            	; 					
 SJ5             	0.35	CHCC            	; 					
 SJ6             	0.55	CHDV            	; 					